/*--------------------------------*- C++ -*----------------------------------*\
  =========                 |
  \\      /  F ield         | OpenFOAM: The Open Source CFD Toolbox
   \\    /   O peration     | Website:  https://openfoam.org
    \\  /    A nd           | Version:  6
     \\/     M anipulation  |
\*---------------------------------------------------------------------------*/
FoamFile
{
    version     2.0;
    format      ascii;
    class       polyBoundaryMesh;
    location    "constant/polyMesh";
    object      boundary;
}
// * * * * * * * * * * * * * * * * * * * * * * * * * * * * * * * * * * * * * //

3
(
    movingWall
    {
        type            wall;
        inGroups        
3
(
allBoundaryGroup
wallsGroup
wall
)
;
        nFaces          20;
        startFace       760;
    }
    fixedWalls
    {
        type            wall;
        inGroups        
3
(
allBoundaryGroup
wallsGroup
wall
)
;
        nFaces          60;
        startFace       780;
    }
    frontAndBack
    {
        type            empty;
        inGroups        
2
(
allBoundaryGroup
empty
)
;
        nFaces          800;
        startFace       840;
    }
)

// ************************************************************************* //
